$DATA1 SOURCE='PrimeSim HSPICE' VERSION='V-2023.12-SP1 linux64' PARAM_COUNT=0
.TITLE 'nand6'
 delayn1          pw               pdp              temper          
 alter#          
  1.555e-10        5.229e-06        8.130e-16         25.0000       
1               
