$DATA1 SOURCE='PrimeSim HSPICE' VERSION='V-2023.12-SP1 linux64' PARAM_COUNT=0
.TITLE 'nand'
 delayn1          pw               pdp              temper          
 alter#          
  7.211e-11        4.717e-06        3.401e-16         25.0000       
1               
